Circuit: * D:\Repos\fonte_bancada_stm32\hardware\adj_voltage(1,25-5v).asc

WARNING: Specified period is not longer than the sum of Trise, Tfall, and Ton for v1.  Increasing period to 0.00102
Direct Newton iteration failed to find .op point.  (Use ".option noopiter" to skip.)
Starting Gmin stepping
Gmin = 10
vernier = 0.5
vernier = 0.666667
Gmin = 3.4946
vernier = 0.888888
vernier = 1
Gmin = 0.528136
Gmin = 0.0567082
Gmin = 0.006089
Gmin = 0.000653801
vernier = 0.5
vernier = 0.25
vernier = 0.125
vernier = 0.0625
Gmin = 0.000546971
vernier = 0.03125
vernier = 0.0416667
Gmin = 0.000507377
vernier = 0.0555555
Gmin = 0.000448112
vernier = 0.074074
vernier = 0.0987653
Gmin = 0.000364084
vernier = 0.131687
vernier = 0.175583
Gmin = 0.000261997
vernier = 0.0877914
vernier = 0.0438957
vernier = 0.0219478
vernier = 0.0109739
vernier = 0.00548696
vernier = 0.00274348
Gmin = 0.000230316
vernier = 0.00137174
vernier = 0.00068587
vernier = 0.000514403
Gmin = 0
Gmin stepping failed

Starting source stepping with srcstepmethod=0
Source Step = 3.0303%
vernier = 0.25
Source Step = 0.0177557%
Source Step = 0.0473485%
Source Step = 0.0769413%
Source Step = 0.106534%
Source Step = 0.136127%
vernier = 0.00146484
Source Step = 0.170159%
Source Step = 0.214548%
Source Step = 0.258937%
Source Step = 0.303326%
Source Step = 0.347715%
vernier = 0.00219727
Source Step = 0.396544%
Source Step = 0.463127%
Source Step = 0.529711%
Source Step = 0.596295%
Source Step = 0.662879%
vernier = 0.0032959
Source Step = 0.732792%
Source Step = 0.832667%
Source Step = 0.932543%
Source Step = 1.03242%
Source Step = 1.13229%
Source Step = 1.23217%
vernier = 0.00494385
Source Step = 1.38198%
Source Step = 1.5318%
Source Step = 1.68161%
Source Step = 1.83142%
Source Step = 1.98124%
vernier = 0.00741577
Source Step = 2.19847%
Source Step = 2.42319%
Source Step = 2.64791%
Source Step = 2.87263%
Source Step = 3.09735%
vernier = 0.0111237
Source Step = 3.41196%
Source Step = 3.74904%
Source Step = 4.08612%
Source Step = 4.4232%
Source Step = 4.76028%
vernier = 0.0166855
Source Step = 5.21534%
Source Step = 5.72096%
Source Step = 6.22658%
Source Step = 6.7322%
Source Step = 7.23782%
vernier = 0.0250282
Source Step = 7.89513%
Source Step = 8.65356%
Source Step = 9.41199%
Source Step = 10.1704%
Source Step = 10.9289%
vernier = 0.0375423
Source Step = 11.8769%
Source Step = 13.0145%
Source Step = 14.1522%
Source Step = 15.2898%
Source Step = 16.4275%
vernier = 0.0563135
Source Step = 17.7927%
Source Step = 19.4991%
Source Step = 21.2056%
Source Step = 22.9121%
Source Step = 24.6185%
vernier = 0.0844703
Source Step = 26.581%
Source Step = 29.1407%
Source Step = 31.7004%
Source Step = 34.2601%
Source Step = 36.8198%
vernier = 0.126705
Source Step = 39.6355%
Source Step = 43.475%
Source Step = 47.3146%
Source Step = 51.1541%
Source Step = 54.9937%
vernier = 0.190058
Source Step = 59.0252%
Source Step = 64.7846%
Source Step = 70.5439%
Source Step = 76.3033%
Source Step = 82.0626%
Source Step = 84.4023%
vernier = 0.00296966
Starting source stepping with srcstepmethod=1
Source Step = 3.0303%
Source Step = 33.3333%
Source Step = 63.6364%
Source Step = 93.9394%
Source Step = 100%
Source Step = 99.0118%
Source stepping failed

Pseudo Transient succeeded in finding the operating point at 1.8696 s.

Date: Sat Jan 15 15:14:31 2022
Total elapsed time: 6.826 seconds.

tnom = 27
temp = 27
method = modified trap
totiter = 150884
traniter = 111775
tranpoints = 45751
accept = 36457
rejected = 9985
matrix size = 151
fillins = 324
solver = Normal
Thread vector: 17.7/9.9[5] 4.4/3.9[2] 1.7/6.1[1] 0.9/2.0[1]  2592/500
Matrix Compiler1: 29.66 KB object code size  9.1/8.6/[2.9]
Matrix Compiler2: 18.65 KB object code size  2.6/3.7/[1.3]

