Circuit: * D:\Repos\fonte_bancada_stm32\hardware\adj_voltage(1,25-5v).asc

Direct Newton iteration failed to find .op point.  (Use ".option noopiter" to skip.)
Starting Gmin stepping
Gmin = 10
vernier = 0.5
vernier = 0.666667
Gmin = 3.4946
vernier = 0.888888
vernier = 1
Gmin = 0.528136
Gmin = 0.0567082
Gmin = 0.006089
Gmin = 0.000653801
vernier = 0.5
vernier = 0.25
vernier = 0.125
vernier = 0.0625
Gmin = 0.000546971
vernier = 0.03125
vernier = 0.0416667
Gmin = 0.000507377
vernier = 0.0555555
Gmin = 0.000448112
vernier = 0.074074
vernier = 0.0987653
Gmin = 0.000364084
vernier = 0.131687
vernier = 0.175583
Gmin = 0.000261997
vernier = 0.0877914
vernier = 0.0438957
vernier = 0.0219478
vernier = 0.0109739
vernier = 0.00548696
vernier = 0.00274348
vernier = 0.00137174
Gmin = 0.000240426
vernier = 0.00068587
vernier = 0.000514403
Gmin = 0
Gmin stepping failed

Starting source stepping with srcstepmethod=0
Source Step = 3.0303%
vernier = 0.25
Source Step = 0.153883%
Source Step = 0.272254%
Source Step = 0.390625%
Source Step = 0.508996%
Source Step = 0.627367%
vernier = 0.00585938
Source Step = 0.769413%
Source Step = 0.94697%
Source Step = 1.12453%
Source Step = 1.30208%
Source Step = 1.47964%
vernier = 0.00878906
Source Step = 1.68383%
Source Step = 1.95017%
Source Step = 2.2165%
Source Step = 2.48284%
Source Step = 2.74917%
vernier = 0.0131836
Source Step = 3.04214%
Source Step = 3.44164%
Source Step = 3.84115%
Source Step = 4.24065%
Source Step = 4.64015%
vernier = 0.0197754
Source Step = 5.05963%
Source Step = 5.65888%
Source Step = 6.25814%
Source Step = 6.85739%
Source Step = 7.45665%
Source Step = 8.0559%
vernier = 0.0296631
Source Step = 8.95478%
Source Step = 9.85366%
Source Step = 10.7525%
Source Step = 11.6514%
Source Step = 12.5503%
vernier = 0.0444946
Source Step = 13.8537%
Source Step = 15.202%
Source Step = 16.5503%
Source Step = 17.8987%
Source Step = 19.247%
vernier = 0.0667419
Source Step = 21.1346%
Source Step = 23.1571%
Source Step = 25.1796%
Source Step = 27.2021%
Source Step = 29.2246%
vernier = 0.100113
Source Step = 31.9549%
Source Step = 34.9886%
Source Step = 38.0224%
Source Step = 41.0561%
Source Step = 44.0898%
vernier = 0.150169
Source Step = 48.0337%
Source Step = 52.5842%
Source Step = 57.1348%
Source Step = 61.6854%
Source Step = 66.236%
vernier = 0.225254
Source Step = 71.9242%
Source Step = 78.7501%
Source Step = 84.3815%
vernier = 0.0140784
Source Step = 84.2321%
Starting source stepping with srcstepmethod=1
Source Step = 3.0303%
Source Step = 33.3333%
Source Step = 63.6364%
Source Step = 93.9394%
Source Step = 100%
Source Step = 99.0118%
Source stepping failed

Pseudo Transient succeeded in finding the operating point at 1.86903 s.

Date: Fri Jan 14 11:35:28 2022
Total elapsed time: 6.952 seconds.

tnom = 27
temp = 27
method = modified trap
totiter = 210054
traniter = 160844
tranpoints = 69381
accept = 53457
rejected = 16924
matrix size = 151
fillins = 284
solver = Normal
Thread vector: 16.8/8.8[5] 3.3/2.6[4] 7.2/4.4[5] 0.8/1.7[1]  2592/500
Matrix Compiler1: 25.85 KB object code size  5.4/3.0/[1.1]
Matrix Compiler2: 18.05 KB object code size  2.9/3.3/[1.3]

