Circuit: * D:\Repos\fonte_bancada_stm32\hardware\Draft1.asc

.OP point found by inspection.

Date: Fri Jan 07 20:22:40 2022
Total elapsed time: 0.090 seconds.

tnom = 27
temp = 27
method = modified trap
totiter = 9440
traniter = 9440
tranpoints = 2464
accept = 1795
rejected = 669
matrix size = 13
fillins = 2
solver = Normal
Matrix Compiler1:      60 opcodes  0.2/[0.1]/0.1
Matrix Compiler2: off  [0.1]/0.2/0.1

