Circuit: * D:\Repos\fonte_bancada_stm32\Draft1.asc

.OP point found by inspection.

Date: Tue Dec 28 12:34:41 2021
Total elapsed time: 0.019 seconds.

tnom = 27
temp = 27
method = modified trap
totiter = 2272
traniter = 2272
tranpoints = 1137
accept = 1116
rejected = 21
matrix size = 3
fillins = 0
solver = Normal
Matrix Compiler1: 50 bytes object code size  0.0/0.0/[0.0]
Matrix Compiler2: off  [0.0]/0.0/0.0

