Circuit: * D:\Repos\fonte_bancada_stm32\hardware\Draft2.asc

Direct Newton iteration failed to find .op point.  (Use ".option noopiter" to skip.)
Starting Gmin stepping
Gmin = 10
vernier = 0.5
vernier = 0.666667
Gmin = 3.4946
vernier = 0.888888
vernier = 1
Gmin = 0.528136
Gmin = 0.0567082
Gmin = 0.006089
Gmin = 0.000653801
vernier = 0.5
vernier = 0.25
vernier = 0.125
vernier = 0.0625
Gmin = 0.000563546
vernier = 0.0833333
vernier = 0.0416667
vernier = 0.0208333
Gmin = 0.000516133
vernier = 0.0104167
vernier = 0.0138889
Gmin = 0.000504194
vernier = 0.0185185
vernier = 0.0246913
Gmin = 0.000482362
vernier = 0.0329218
Gmin = 0.000448964
vernier = 0.0164609
vernier = 0.0219478
Gmin = 0.000433858
vernier = 0.0292638
vernier = 0.0390184
Gmin = 0.000402874
vernier = 0.0520245
Gmin = 0.000358619
vernier = 0.0693659
vernier = 0.0924879
Gmin = 0.000295205
vernier = 0.123317
vernier = 0.164423
vernier = 0.0822114
Gmin = 0.000235043
vernier = 0.0411057
vernier = 0.0205529
vernier = 0.0102764
vernier = 0.00513821
vernier = 0.00256911
vernier = 0.00128455
vernier = 0.000642277
vernier = 0.000481708
Gmin = 0
Gmin stepping failed

Starting source stepping with srcstepmethod=0
Source Step = 3.0303%
vernier = 0.25
Source Step = 0.0177557%
Source Step = 0.0473485%
Source Step = 0.0769413%
Source Step = 0.106534%
Source Step = 0.136127%
vernier = 0.00146484
Source Step = 0.173118%
Source Step = 0.217507%
Source Step = 0.261896%
Source Step = 0.306286%
Source Step = 0.350675%
vernier = 0.00219727
Source Step = 0.403942%
Source Step = 0.470526%
Source Step = 0.537109%
Source Step = 0.603693%
Source Step = 0.670277%
vernier = 0.0032959
Source Step = 0.746848%
Source Step = 0.846724%
Source Step = 0.9466%
Source Step = 1.04648%
Source Step = 1.14635%
vernier = 0.00494385
Source Step = 1.25621%
Source Step = 1.40603%
Source Step = 1.55584%
Source Step = 1.70566%
Source Step = 1.85547%
vernier = 0.00741577
Source Step = 2.01277%
Source Step = 2.23749%
Source Step = 2.46221%
Source Step = 2.68693%
Source Step = 2.91165%
Source Step = 3.13637%
vernier = 0.0111237
Source Step = 3.47346%
Source Step = 3.81054%
Source Step = 4.14762%
Source Step = 4.4847%
Source Step = 4.82178%
vernier = 0.0166855
Source Step = 5.31054%
Source Step = 5.81616%
Source Step = 6.32179%
Source Step = 6.82741%
Source Step = 7.33303%
vernier = 0.0250282
Source Step = 8.0409%
vernier = 0.00625706
Source Step = 8.00771%
Source Step = 8.05512%
Source Step = 8.10252%
Source Step = 8.14992%
Source Step = 8.19732%
vernier = 0.0023464
Source Step = 8.26132%
Source Step = 8.33242%
Source Step = 8.40352%
Source Step = 8.47462%
Source Step = 8.54573%
vernier = 0.00351959
Source Step = 8.63816%
Source Step = 8.74482%
Source Step = 8.85147%
Source Step = 8.95812%
Source Step = 9.06478%
vernier = 0.00527939
Source Step = 9.1981%
Source Step = 9.35808%
Source Step = 9.51806%
Source Step = 9.67804%
Source Step = 9.83802%
vernier = 0.00791909
Source Step = 10.03%
Source Step = 10.27%
Source Step = 10.5099%
Source Step = 10.7499%
Source Step = 10.9899%
vernier = 0.0118786
Source Step = 11.2659%
Source Step = 11.6258%
Source Step = 11.9858%
Source Step = 12.3457%
Source Step = 12.7057%
Source Step = 12.8407%
Source Step = 12.9307%
Source Step = 13.0207%
Source Step = 13.1106%
Source Step = 13.2006%
vernier = 0.00445449
Source Step = 13.3041%
Source Step = 13.4391%
Source Step = 13.5741%
Source Step = 13.7091%
Source Step = 13.8441%
vernier = 0.00668173
Source Step = 13.9925%
Source Step = 14.195%
Source Step = 14.3975%
Source Step = 14.6%
Source Step = 14.8025%
vernier = 0.0100226
Source Step = 15.0151%
Source Step = 15.3188%
Source Step = 15.6225%
Source Step = 15.9262%
Source Step = 16.2299%
Source Step = 16.5336%
vernier = 0.0150339
Source Step = 16.9892%
Source Step = 17.4448%
Source Step = 17.9003%
Source Step = 18.3559%
Source Step = 18.8115%
vernier = 0.0225508
Source Step = 19.4721%
Source Step = 20.1554%
Source Step = 20.8388%
Source Step = 21.5221%
Source Step = 22.2055%
vernier = 0.0338263
Source Step = 22.9828%
vernier = 0.00211414
Starting source stepping with srcstepmethod=1
Source Step = 3.0303%
vernier = 0.25
Source Step = 0.0828598%
Source Step = 0.201231%
Source Step = 0.319602%
Source Step = 0.437973%
Source Step = 0.556345%
vernier = 0.00585938
Source Step = 0.710227%
Source Step = 0.887784%
Source Step = 1.06534%
Source Step = 1.2429%
Source Step = 1.42045%
vernier = 0.00878906
Source Step = 1.6424%
Source Step = 1.90874%
Source Step = 2.17507%
Source Step = 2.44141%
Source Step = 2.70774%
vernier = 0.0131836
Source Step = 3.02734%
Source Step = 3.42685%
Source Step = 3.82635%
Source Step = 4.22585%
Source Step = 4.62536%
vernier = 0.0197754
Source Step = 5.08478%
Source Step = 5.68404%
Source Step = 6.28329%
Source Step = 6.88255%
Source Step = 7.4818%
vernier = 0.0296631
Source Step = 8.14098%
Source Step = 9.03986%
Source Step = 9.93874%
Source Step = 10.8376%
Source Step = 11.7365%
vernier = 0.0444946
Source Step = 12.6803%
Source Step = 14.0287%
Source Step = 15.377%
Source Step = 16.7253%
Source Step = 18.0736%
Source Step = 19.4219%
vernier = 0.0667419
Source Step = 21.4444%
Source Step = 23.4669%
Source Step = 25.4894%
Source Step = 27.5119%
Source Step = 29.5344%
vernier = 0.100113
Source Step = 32.467%
Source Step = 35.5007%
Source Step = 38.5344%
Source Step = 41.5681%
Source Step = 44.6019%
vernier = 0.150169
Source Step = 48.8491%
Source Step = 53.3997%
Source Step = 57.9502%
Source Step = 62.5008%
Source Step = 67.0514%
vernier = 0.225254
Source Step = 73.1947%
Source Step = 80.0206%
Source Step = 86.8465%
Source Step = 90.2621%
Source stepping failed

Pseudo Transient succeeded in finding the operating point at 1.61327 s.

Date: Fri Jan 07 20:41:09 2022
Total elapsed time: 10.801 seconds.

tnom = 27
temp = 27
method = modified trap
totiter = 51899
traniter = 2102
tranpoints = 1042
accept = 1042
rejected = 910
matrix size = 400
fillins = 721
solver = Normal
Thread vector: 37.1/22.2[6] 10.5/4.9[6] 7.0/3.1[6] 2.1/6.4[1]  2592/500
Matrix Compiler1: 60.89 KB object code size  16.7/7.7/[3.1]
Matrix Compiler2: 46.76 KB object code size  8.3/8.5/[5.2]

