Circuit: * D:\Repos\fonte_bancada_stm32\hardware\Draft1.asc

.OP point found by inspection.

Date: Mon Jan 31 11:40:42 2022
Total elapsed time: 0.160 seconds.

tnom = 27
temp = 27
method = modified trap
totiter = 40014
traniter = 40014
tranpoints = 20008
accept = 12012
rejected = 7996
matrix size = 2
fillins = 0
solver = Normal
Matrix Compiler1: off  [0.0]/0.0/0.0
Matrix Compiler2: off  [0.0]/0.0/0.0

