Circuit: * D:\Repos\fonte_bancada_stm32\hardware\Draft2.asc

WARNING: Specified period is not longer than the sum of Trise, Tfall, and Ton for v1.  Increasing period to 0.00102
Direct Newton iteration failed to find .op point.  (Use ".option noopiter" to skip.)
Starting Gmin stepping
Gmin = 10
vernier = 0.5
vernier = 0.666667
Gmin = 3.4946
vernier = 0.888888
vernier = 1
Gmin = 0.528136
Gmin = 0.0567082
Gmin = 0.006089
Gmin = 0.000653801
vernier = 0.5
vernier = 0.25
vernier = 0.125
vernier = 0.0625
Gmin = 0.000673195
vernier = 0.03125
vernier = 0.015625
vernier = 0.0078125
vernier = 0.00390625
Gmin = 0.000669268
vernier = 0.00195313
vernier = 0.000976563
vernier = 0.000488281
Gmin = 0.000668126
vernier = 0.000651042
vernier = 0.000868055
Gmin = 0.000667084
vernier = 0.00115741
Gmin = 0.000665398
vernier = 0.00154321
vernier = 0.00205761
Gmin = 0.000662645
vernier = 0.00274348
vernier = 0.00365797
Gmin = 0.000658305
vernier = 0.0048773
Gmin = 0.000651322
vernier = 0.00650306
vernier = 0.00867074
Gmin = 0.000640048
vernier = 0.011561
vernier = 0.0154146
Gmin = 0.000622588
vernier = 0.0205529
Gmin = 0.000595278
vernier = 0.0274038
vernier = 0.0137019
vernier = 0.00685095
vernier = 0.00342548
vernier = 0.00171274
vernier = 0.000856369
Gmin = 0.000580228
vernier = 0.000428184
Gmin = 0
Gmin stepping failed

Starting source stepping with srcstepmethod=0
Source Step = 3.0303%
vernier = 0.25
Source Step = 0.378788%
Source Step = 0.852273%
Source Step = 1.32576%
Source Step = 1.79924%
Source Step = 2.27273%
vernier = 0.0234375
Source Step = 2.91193%
Source Step = 3.62216%
Source Step = 4.33239%
Source Step = 5.04261%
Source Step = 5.75284%
vernier = 0.0351563
Source Step = 6.67614%
Source Step = 7.74148%
Source Step = 8.80682%
Source Step = 9.87216%
Source Step = 10.9375%
vernier = 0.0527344
Source Step = 12.2692%
Source Step = 13.8672%
Source Step = 15.4652%
Source Step = 17.0632%
Source Step = 18.6612%
vernier = 0.0791016
Source Step = 20.5788%
Source Step = 22.9759%
Source Step = 25.3729%
Source Step = 27.7699%
Source Step = 30.1669%
vernier = 0.118652
Source Step = 32.9235%
Source Step = 36.519%
Source Step = 40.1145%
Source Step = 43.71%
Source Step = 47.3056%
vernier = 0.177979
Source Step = 51.2607%
Source Step = 56.6539%
Source Step = 62.0472%
Source Step = 67.4405%
Source Step = 72.8338%
vernier = 0.266968
Source Step = 78.4968%
Source Step = 86.5867%
Source Step = 94.6766%
Source stepping succeeded in finding the operating point.

Heightened Def Con from 0.000523486 +to 0.000523486

Date: Thu Dec 30 16:27:02 2021
Total elapsed time: 13.298 seconds.

tnom = 27
temp = 27
method = modified trap
totiter = 499182
traniter = 494915
tranpoints = 217852
accept = 171875
rejected = 45979
matrix size = 166
fillins = 357
solver = Normal
Thread vector: 13.8/8.2[5] 4.4/3.1[5] 3.7/2.4[5] 0.9/1.7[1]  2592/500
Matrix Compiler1: 37.15 KB object code size  7.0/3.9/[1.8]
Matrix Compiler2: 20.50 KB object code size  3.3/3.9/[1.9]

