Circuit: * D:\Repos\fonte_bancada_stm32\hardware\supply.asc

.OP point found by inspection.

Date: Wed Jan 12 16:43:42 2022
Total elapsed time: 1.282 seconds.

tnom = 27
temp = 27
method = modified trap
totiter = 291477
traniter = 291477
tranpoints = 140714
accept = 103388
rejected = 37326
matrix size = 19
fillins = 2
solver = Normal
Matrix Compiler1: 1.30 KB object code size  0.3/0.2/[0.1]
Matrix Compiler2: 1.47 KB object code size  0.1/0.2/[0.1]

